15
C5H8Cl2
C        1.054700965      1.002765196      0.334327564
C        0.040255974      0.388538936      1.266299519
C        2.458872640      1.450975150      0.654255698
H        0.383250731      0.364677249      2.296236846
H        3.060436943      1.335856540      1.550834626
C        3.414251962      1.739924746     -0.518501089
H        4.301261703      1.097511758     -0.478155989
H        2.924942380      1.566770968     -1.483747921
H        3.759179785      2.780096103     -0.505196367
C       -1.008955291      1.485109709      1.004979291
H       -0.622169643      2.249945478      0.321948132
H       -1.926784593      1.081309645      0.562664444
H       -1.285742232      1.986564162      1.939345971
Cl      -0.568061829     -1.170454596      0.967153039
Cl       0.768030614      0.925783346     -1.410606219
