15
C5H8Cl2
C        1.539080497      1.178142132      0.495508306
C        0.800919191      1.023694489      1.801727306
C        2.277241804      1.332589776      1.801727306
H        0.485996218      0.027532467      2.097481306
H        2.592164777      2.328751797      2.097481306
C        3.252860510      0.217324714      2.221193613
H        3.096559874     -0.077787005      3.265026760
H        3.125139874     -0.678134765      1.602366251
H        4.295242271      0.540988032      2.122244178
C       -0.174699515      2.138959551      2.221193613
H       -0.836573367      2.421786878      1.394731175
H       -0.807993367      1.821439118      3.057391685
H        0.362109031      3.040561915      2.537513757
Cl       1.843063742     -0.274704048     -0.468717893
Cl       1.235097253      2.630988313     -0.468717893
