9
Coordinates from ORCA-job orca
  I   2.44734817349985      0.41348138186132     -0.76811599232879
  C   -0.43171897906351      0.16021698771748     -1.12194348733681
  H   -0.70819140934428     -0.88422230241807     -1.08825847266272
  H   -1.10116335520281      0.87214134473682     -0.66219672201609
  H   0.07899069929512      0.49647467818084     -2.00996462001653
  N   -0.12422500067277     -0.22670330871480      1.17940230485340
  H   0.31332876306630      0.60541022322240      1.55541598717220
  H   0.51616985773174     -1.00813750088072      1.24676272219507
  H   -0.99053874930963     -0.42866150370526      1.66889828014027
