15
C5H8Cl2
C        1.459890583      0.886687993      0.829786824
C        0.143397367      0.620543829      1.516050010
C        2.800144408      1.235770650      1.427118599
H       -0.705898314      0.423716747      0.868793008
H        2.855240435      2.086165529      2.100006894
C        3.737047714      1.549692444      0.245905112
H        4.749508405      1.171864038      0.428326325
H        3.376177602      1.091964946     -0.682192859
H        3.813723268      2.629264301      0.073411242
C        0.029940596      0.938629164      3.018564330
H        0.430242833      1.932890675      3.247279485
H       -1.013490337      0.917949700      3.353126420
H        0.584878919      0.212298158      3.623209184
Cl       3.841687236      0.289971416      2.381399661
Cl       0.887704957      0.884090348     -0.845174926
