15

  C   0.00580902460570     -0.00097686413142     -0.91510206532088
  C   -1.26371703133464      0.05803607912644     -0.29580139540159
  C   0.91413228526250      0.09538391528534      0.16775824550193
  H   -1.98954986845812     -0.66379051463615     -0.64590383978149
  H   0.70842108656149      0.82259303270134      0.94356839846379
  C   2.15366572081762     -0.70249075312057      0.35029041218116
  H   2.21356964602287     -1.09690244390586      1.36691650738489
  H   2.22364710247248     -1.51632751533886     -0.36478872418514
  H   3.01684314063189     -0.04358880136137      0.22608895776588
  C   -1.84428865368521      1.01420586663293      0.67669309647398
  H   -1.84591647219176      1.99313382425282      0.18907964188723
  H   -2.87778006042748      0.72262919176749      0.85931873917673
  H   -1.35432193010758      1.12152782882984      1.64190483127146
  Cl  -0.55961732899229     -2.20650839135303     -1.66207158771197
  Cl  0.49910333882254      0.40307554525105     -2.53795121770597
